Circuit: * C:\Users\carlos\Documents\LTspiceXVII\ac.asc


Date: Wed Nov 29 12:59:23 2017
Total elapsed time: 0.088 seconds.

tnom = 27
temp = 27
method = trap
totiter = 0
traniter = 0
tranpoints = 0
accept = 0
rejected = 0
matrix size = 4
fillins = 0
solver = Normal

