Circuit: * C:\Users\carlos\Documents\LTspiceXVII\Draft7.asc


Date: Thu Nov 23 15:25:45 2017
Total elapsed time: 0.111 seconds.

tnom = 27
temp = 27
method = trap
totiter = 0
traniter = 0
tranpoints = 0
accept = 0
rejected = 0
matrix size = 4
fillins = 0
solver = Normal

