Circuit: * C:\Users\carlos\Documents\LTspiceXVII\Draft3.asc


Date: Fri Nov 17 16:46:25 2017
Total elapsed time: 0.169 seconds.

tnom = 27
temp = 27
method = trap
totiter = 0
traniter = 0
tranpoints = 0
accept = 0
rejected = 0
matrix size = 4
fillins = 0
solver = Normal

