Circuit: * C:\Users\carlos\Documents\LTspiceXVII\Draft2.asc

.OP point found by inspection.

Date: Wed Nov 29 12:59:03 2017
Total elapsed time: 0.471 seconds.

tnom = 27
temp = 27
method = modified trap
totiter = 2394
traniter = 2394
tranpoints = 1198
accept = 1174
rejected = 24
matrix size = 4
fillins = 0
solver = Normal
Matrix Compiler1:       6 opcodes  0.2/[0.2]/0.2
Matrix Compiler2: 248 bytes object code size  0.1/0.5/[0.1]

